OC=O
 OpenBabel06172006313D

  4  3  0  0  0  0  0  0  0  0999 V2000
   -3.0370   80.8240  111.1190 C   0  0  0  0  0  0  0  0  0  0  0  0
   -3.5960   81.9520  111.2390 O   0  0  0  0  0  0  0  0  0  0  0  0
   -3.5540   79.7900  111.6550 O   0  0  0  0  0  0  0  0  0  0  0  0
   -3.1362   78.9563  111.5634 H   0  0  0  0  0  0  0  0  0  0  0  0
  1  2  2  0  0  0  0
  1  3  1  0  0  0  0
  3  4  1  0  0  0  0
M  END
$$$$
CC=O
 OpenBabel06172006313D

  3  2  0  0  0  0  0  0  0  0999 V2000
    3.2970   80.6740  108.3320 C   0  0  0  0  0  0  0  0  0  0  0  0
    3.7660   80.8730  109.4910 O   0  0  0  0  0  0  0  0  0  0  0  0
    4.2430   80.5860  107.1910 C   0  0  0  0  0  0  0  0  0  0  0  0
  1  2  2  0  0  0  0
  3  1  1  0  0  0  0
M  END
$$$$
CN[C@H]1[C@H](OC)C=CC[C@@H]1N
 OpenBabel06172006313D

 14 14  0  0  1  0  0  0  0  0999 V2000
   -1.8110   80.7460  110.3590 C   0  0  0  0  0  0  0  0  0  0  0  0
   -1.0100   79.3380  110.1370 C   0  0  0  0  0  0  0  0  0  0  0  0
    0.1120   79.3270  109.0040 C   0  0  1  0  0  0  0  0  0  0  0  0
    0.9450   80.6010  109.1440 C   0  0  1  0  0  0  0  0  0  0  0  0
    1.9870   80.5330  108.0490 N   0  0  0  0  0  0  0  0  0  0  0  0
    3.2970   80.6740  108.3320 C   0  0  0  0  0  0  0  0  0  0  0  0
   -0.0030   81.8690  108.9590 C   0  0  1  0  0  0  0  0  0  0  0  0
   -1.2700   81.9290  109.7700 C   0  0  0  0  0  0  0  0  0  0  0  0
    0.8460   83.0910  109.1390 O   0  0  0  0  0  0  0  0  0  0  0  0
    1.2100   84.0460  108.0590 C   0  0  0  0  0  0  0  0  0  0  0  0
    0.9330   78.1300  109.1770 N   0  0  0  0  0  0  0  0  0  0  0  0
    1.7043   80.3838  107.1178 H   0  0  0  0  0  0  0  0  0  0  0  0
    1.6570   78.1076  108.4588 H   0  0  0  0  0  0  0  0  0  0  0  0
    0.3459   77.3001  109.0939 H   0  0  0  0  0  0  0  0  0  0  0  0
  2  1  1  0  0  0  0
  3  4  1  0  0  0  0
  3 11  1  1  0  0  0
  3  2  1  0  0  0  0
  4  5  1  6  0  0  0
  5  6  1  0  0  0  0
  5 12  1  0  0  0  0
  7  9  1  1  0  0  0
  7  4  1  0  0  0  0
  7  8  1  0  0  0  0
  8  1  2  0  0  0  0
 10  9  1  0  0  0  0
 11 13  1  0  0  0  0
 11 14  1  0  0  0  0
M  END
$$$$
CCC
 OpenBabel06172006313D

  3  2  0  0  0  0  0  0  0  0999 V2000
    1.2100   84.0460  108.0590 C   0  0  0  0  0  0  0  0  0  0  0  0
    0.0510   84.7030  107.2590 C   0  0  0  0  0  0  0  0  0  0  0  0
   -1.0100   85.4580  108.0770 C   0  0  0  0  0  0  0  0  0  0  0  0
  2  1  1  0  0  0  0
  2  3  1  0  0  0  0
M  END
$$$$
CC
 OpenBabel06172006313D

  2  1  0  0  0  0  0  0  0  0999 V2000
    2.0910   85.0800  108.7340 C   0  0  0  0  0  0  0  0  0  0  0  0
    3.4620   84.5490  109.0080 C   0  0  0  0  0  0  0  0  0  0  0  0
  1  2  1  0  0  0  0
M  END
$$$$
